<?xml version="1.0" encoding="UTF-8"?>

<!-- generated on 05/21/25 12:25:41 by Eclipse SUMO netconvert Version 1.8.0
<configuration xmlns:xsi="http://www.w3.org/2001/XMLSchema-instance" xsi:noNamespaceSchemaLocation="http://sumo.dlr.de/xsd/netconvertConfiguration.xsd">

    <input>
        <osm-files value="nh29.osm"/>
    </input>

    <output>
        <output-file value="nh29.net.xml"/>
    </output>

    <projection>
        <proj.utm value="true"/>
    </projection>

    <report>
        <aggregate-warnings value="5"/>
    </report>

</configuration>
-->

<net version="1.6" junctionCornerDetail="5" limitTurnSpeed="5.50" xmlns:xsi="http://www.w3.org/2001/XMLSchema-instance" xsi:noNamespaceSchemaLocation="http://sumo.dlr.de/xsd/net_file.xsd">

    <location netOffset="-580170.25,-2850963.24" convBoundary="0.00,0.00,622.54,2457.66" origBoundary="93.796149,25.768864,93.808740,25.801805" projParameter="+proj=utm +zone=46 +ellps=WGS84 +datum=WGS84 +units=m +no_defs"/>

    <type id="highway.bridleway" priority="1" numLanes="1" speed="2.78" allow="pedestrian" oneway="1" width="2.00"/>
    <type id="highway.bus_guideway" priority="1" numLanes="1" speed="27.78" allow="bus" oneway="1"/>
    <type id="highway.cycleway" priority="1" numLanes="1" speed="8.33" allow="bicycle" oneway="0" width="1.00"/>
    <type id="highway.footway" priority="1" numLanes="1" speed="2.78" allow="pedestrian" oneway="1" width="2.00"/>
    <type id="highway.ford" priority="1" numLanes="1" speed="2.78" allow="army" oneway="0"/>
    <type id="highway.living_street" priority="2" numLanes="1" speed="2.78" disallow="tram rail_urban rail rail_electric rail_fast ship" oneway="0"/>
    <type id="highway.motorway" priority="14" numLanes="2" speed="39.44" allow="private emergency authority army vip passenger hov taxi bus coach delivery truck trailer motorcycle evehicle custom1 custom2" oneway="1"/>
    <type id="highway.motorway_link" priority="9" numLanes="1" speed="22.22" allow="private emergency authority army vip passenger hov taxi bus coach delivery truck trailer motorcycle evehicle custom1 custom2" oneway="1"/>
    <type id="highway.path" priority="1" numLanes="1" speed="2.78" allow="pedestrian bicycle" oneway="0" width="2.00"/>
    <type id="highway.pedestrian" priority="1" numLanes="1" speed="2.78" allow="pedestrian" oneway="1" width="2.00"/>
    <type id="highway.primary" priority="12" numLanes="2" speed="27.78" disallow="tram rail_urban rail rail_electric rail_fast ship" oneway="0"/>
    <type id="highway.primary_link" priority="7" numLanes="1" speed="22.22" disallow="tram rail_urban rail rail_electric rail_fast ship" oneway="0"/>
    <type id="highway.raceway" priority="15" numLanes="2" speed="83.33" allow="vip" oneway="0"/>
    <type id="highway.residential" priority="3" numLanes="1" speed="13.89" disallow="tram rail_urban rail rail_electric rail_fast ship" oneway="0"/>
    <type id="highway.secondary" priority="11" numLanes="1" speed="27.78" disallow="tram rail_urban rail rail_electric rail_fast ship" oneway="0"/>
    <type id="highway.secondary_link" priority="6" numLanes="1" speed="22.22" disallow="tram rail_urban rail rail_electric rail_fast ship" oneway="0"/>
    <type id="highway.service" priority="1" numLanes="1" speed="5.56" allow="pedestrian delivery bicycle" oneway="0"/>
    <type id="highway.stairs" priority="1" numLanes="1" speed="1.39" allow="pedestrian" oneway="1" width="2.00"/>
    <type id="highway.step" priority="1" numLanes="1" speed="1.39" allow="pedestrian" oneway="1" width="2.00"/>
    <type id="highway.steps" priority="1" numLanes="1" speed="1.39" allow="pedestrian" oneway="1" width="2.00"/>
    <type id="highway.tertiary" priority="10" numLanes="1" speed="22.22" disallow="tram rail_urban rail rail_electric rail_fast ship" oneway="0"/>
    <type id="highway.tertiary_link" priority="5" numLanes="1" speed="22.22" disallow="tram rail_urban rail rail_electric rail_fast ship" oneway="0"/>
    <type id="highway.track" priority="1" numLanes="1" speed="5.56" allow="pedestrian motorcycle moped bicycle" oneway="0"/>
    <type id="highway.trunk" priority="13" numLanes="2" speed="27.78" disallow="pedestrian bicycle tram rail_urban rail rail_electric rail_fast ship" oneway="0"/>
    <type id="highway.trunk_link" priority="8" numLanes="1" speed="22.22" disallow="pedestrian bicycle tram rail_urban rail rail_electric rail_fast ship" oneway="0"/>
    <type id="highway.unclassified" priority="4" numLanes="1" speed="13.89" disallow="tram rail_urban rail rail_electric rail_fast ship" oneway="0"/>
    <type id="highway.unsurfaced" priority="1" numLanes="1" speed="8.33" disallow="tram rail_urban rail rail_electric rail_fast ship" oneway="0"/>
    <type id="railway.highspeed" priority="21" numLanes="1" speed="69.44" allow="rail_fast" oneway="1"/>
    <type id="railway.light_rail" priority="19" numLanes="1" speed="27.78" allow="rail_urban" oneway="1"/>
    <type id="railway.preserved" priority="16" numLanes="1" speed="27.78" allow="rail" oneway="1"/>
    <type id="railway.rail" priority="20" numLanes="1" speed="44.44" allow="rail" oneway="1"/>
    <type id="railway.subway" priority="18" numLanes="1" speed="27.78" allow="rail_urban" oneway="1"/>
    <type id="railway.tram" priority="17" numLanes="1" speed="13.89" allow="tram" oneway="1"/>

    <edge id="1353388495" from="9561831826" to="12522923406" priority="13" type="highway.trunk" spreadType="center" shape="192.40,2448.34 227.64,2431.82 261.10,2428.89 294.31,2435.59 335.15,2448.50 372.02,2456.19 412.53,2457.66 438.68,2454.49 468.36,2442.13 492.48,2426.37 511.25,2407.00 528.33,2384.49 614.92,2224.19 622.04,2202.48 622.41,2179.76 622.54,2156.58 618.69,2132.56 611.06,2099.34 598.52,2064.27 583.31,2037.06 561.94,2009.58 533.40,1981.03 504.43,1958.92 460.74,1933.72 433.66,1924.35 404.23,1924.17 379.20,1928.40 357.95,1941.79 351.73,1946.49 327.69,1966.83 294.70,2000.22 268.49,2014.81 243.59,2014.66 221.68,2002.83 207.23,1981.25 204.10,1964.34 206.84,1938.31 216.76,1904.19 227.58,1862.07 240.28,1831.05 264.96,1775.45 274.51,1742.85 274.58,1713.74 266.53,1685.46 257.98,1666.10 237.82,1649.26 223.15,1643.31 202.04,1640.11 174.54,1642.38 133.05,1659.50 112.61,1664.27 79.21,1664.97 60.10,1656.75 43.44,1642.18 29.65,1617.36 18.02,1577.15 17.28,1545.76 22.83,1526.64 40.68,1505.90 70.03,1472.66 125.78,1419.19 161.71,1394.04 187.73,1377.62 208.54,1362.24 232.96,1338.53 255.82,1304.87 270.44,1276.23 273.30,1251.92 271.61,1223.36 265.10,1205.94 251.90,1189.99 239.72,1179.10 208.66,1165.11 148.37,1147.27 92.10,1132.69 68.55,1121.90 59.50,1103.18 60.10,1083.47 71.77,1062.69 103.61,1031.19 188.83,974.31">
        <lane id="1353388495_0" index="0" disallow="pedestrian bicycle tram rail_urban rail rail_electric rail_fast ship" speed="27.78" length="2753.21" shape="191.72,2446.89 227.22,2430.25 261.19,2427.28 294.71,2434.04 335.55,2446.95 372.21,2454.60 412.46,2456.05 438.27,2452.93 467.61,2440.71 491.46,2425.13 510.03,2405.96 526.98,2383.62 613.45,2223.55 620.45,2202.21 620.81,2179.74 620.94,2156.70 617.12,2132.87 609.52,2099.79 597.06,2064.94 581.97,2037.94 560.74,2010.64 532.35,1982.24 503.54,1960.25 460.07,1935.18 433.38,1925.95 404.36,1925.77 379.78,1929.93 358.86,1943.10 352.73,1947.74 328.78,1968.01 295.68,2001.51 268.90,2016.42 243.18,2016.26 220.57,2004.05 205.71,1981.86 202.48,1964.40 205.26,1938.00 215.22,1903.77 226.06,1861.57 238.81,1830.42 263.45,1774.89 272.91,1742.62 272.98,1713.96 265.02,1686.00 256.67,1667.09 236.99,1650.65 222.72,1644.86 201.99,1641.72 174.92,1643.96 133.54,1661.02 112.81,1665.86 78.89,1666.58 59.23,1658.12 42.18,1643.20 28.17,1617.98 16.42,1577.40 15.67,1545.55 21.39,1525.86 39.47,1504.85 68.87,1471.55 124.76,1417.95 160.82,1392.71 186.83,1376.30 207.50,1361.02 231.72,1337.49 254.44,1304.06 268.88,1275.76 271.70,1251.87 270.03,1223.69 263.69,1206.75 250.74,1191.10 238.84,1180.45 208.11,1166.61 147.94,1148.82 91.56,1134.20 67.36,1123.12 57.89,1103.52 58.51,1083.02 70.48,1061.71 102.60,1029.94 187.94,972.98"/>
        <lane id="1353388495_1" index="1" disallow="pedestrian bicycle tram rail_urban rail rail_electric rail_fast ship" speed="27.78" length="2753.21" shape="193.08,2449.79 228.06,2433.39 261.01,2430.50 293.91,2437.14 334.74,2450.05 371.82,2457.78 412.60,2459.26 439.09,2456.06 469.11,2443.55 493.50,2427.61 512.46,2408.05 529.68,2385.36 616.40,2224.82 623.64,2202.75 624.01,2179.77 624.14,2156.45 620.26,2132.26 612.60,2098.89 599.99,2063.61 584.65,2036.17 563.14,2008.52 534.46,1979.83 505.32,1957.58 461.41,1932.26 433.93,1922.75 404.10,1922.57 378.62,1926.88 357.04,1940.47 350.73,1945.24 326.60,1965.66 293.72,1998.93 268.08,2013.21 244.00,2013.06 222.79,2001.61 208.74,1980.63 205.72,1964.28 208.41,1938.62 218.30,1904.61 229.10,1862.57 241.76,1831.68 266.46,1776.00 276.11,1743.09 276.18,1713.52 268.04,1684.91 259.30,1665.12 238.66,1647.87 223.58,1641.76 202.10,1638.50 174.16,1640.81 132.56,1657.97 112.41,1662.67 79.52,1663.36 60.96,1655.38 44.70,1641.16 31.14,1616.74 19.61,1576.90 18.88,1545.97 24.27,1527.42 41.89,1506.95 71.18,1473.77 126.80,1420.43 162.60,1395.38 188.63,1378.94 209.58,1363.47 234.19,1339.56 257.20,1305.69 271.99,1276.71 274.91,1251.97 273.19,1223.02 266.50,1205.13 253.06,1188.88 240.61,1177.74 209.22,1163.60 148.80,1145.73 92.64,1131.18 69.74,1120.69 61.11,1102.83 61.69,1083.91 73.05,1063.67 104.63,1032.44 189.72,975.64"/>
        <param key="ref" value="NH29"/>
    </edge>
    <edge id="1353388496" from="4514882662" to="6263815666" priority="13" type="highway.trunk" spreadType="center" shape="478.68,0.00 439.04,44.80 357.00,132.70 331.32,160.85 324.62,182.32 324.56,228.92 330.67,307.06 329.46,356.18 316.74,398.88 295.89,426.50 258.34,458.29 170.41,519.85 130.26,554.45 115.64,569.65 109.48,586.95 109.06,609.94 124.72,689.32 131.32,715.45 141.42,739.41 171.73,770.94 218.49,820.25 238.25,848.83 244.00,878.43 239.53,903.56 223.55,931.72 182.73,964.05 85.98,1031.51 61.54,1055.94 50.72,1073.67 46.20,1090.30 47.85,1111.61 60.51,1132.08 77.50,1142.69 208.23,1180.22 231.69,1190.01 252.30,1207.71 263.88,1231.23 264.71,1252.42 260.51,1275.84 246.09,1301.28 219.48,1337.86 195.74,1363.40 155.06,1386.46 117.66,1410.96 81.24,1441.54 32.18,1498.13 9.58,1527.62 0.00,1552.38 6.59,1592.03 13.34,1615.64 31.58,1652.29 49.15,1667.70 68.06,1678.22 99.19,1682.88 126.03,1677.53 160.83,1665.54 192.12,1658.04 218.10,1657.95 238.24,1668.12 254.17,1685.69 263.46,1713.80 263.06,1734.57 255.96,1763.62 241.63,1801.39 222.02,1843.88 213.76,1870.11 205.88,1905.40 194.22,1940.37 191.33,1959.01 195.60,1982.45 206.01,2006.19 226.37,2022.51 245.30,2029.45 272.13,2028.56 301.98,2013.41 326.75,1988.45 374.07,1949.27 390.80,1940.92 418.54,1938.61 438.65,1939.43 463.21,1949.55 505.80,1975.29 543.81,2009.27 565.98,2032.03 580.79,2056.38 592.93,2085.86 603.37,2116.01 609.18,2151.46 611.46,2181.13 606.90,2212.10 591.82,2245.51 554.59,2317.81 512.37,2389.60 485.56,2416.98 464.57,2432.94 441.26,2441.55 412.59,2447.16 386.94,2448.10 354.62,2441.95 315.14,2431.25 268.64,2419.75 242.23,2419.23 216.20,2424.03 194.80,2432.01 181.54,2441.51">
        <lane id="1353388496_0" index="0" disallow="pedestrian bicycle tram rail_urban rail rail_electric rail_fast ship" speed="27.78" length="3954.11" shape="479.88,1.06 440.23,45.88 358.18,133.79 332.74,161.67 326.22,182.57 326.16,228.86 332.27,307.02 331.05,356.44 318.19,399.61 297.06,427.60 259.32,459.55 171.39,521.11 131.36,555.61 117.03,570.51 111.08,587.24 110.67,609.79 126.29,688.97 132.85,714.94 142.78,738.52 172.88,769.84 219.74,819.24 239.76,848.19 245.63,878.42 241.05,904.11 224.79,932.78 183.68,965.33 87.01,1032.75 62.81,1056.94 52.20,1074.31 47.82,1090.46 49.41,1111.10 61.67,1130.92 78.16,1141.21 208.76,1178.71 232.54,1188.63 253.59,1206.71 265.47,1230.83 266.32,1252.53 262.04,1276.39 247.44,1302.15 220.72,1338.88 196.74,1364.67 155.89,1387.83 118.62,1412.25 82.36,1442.69 33.42,1499.14 10.98,1528.41 1.65,1552.55 8.15,1591.68 14.84,1615.06 32.87,1651.29 50.08,1666.39 68.58,1676.68 99.15,1681.26 125.61,1675.98 160.38,1664.01 191.93,1656.44 218.48,1656.35 239.22,1666.83 255.59,1684.87 265.06,1713.56 264.66,1734.78 257.49,1764.09 243.10,1802.01 223.51,1844.46 215.30,1870.53 207.43,1905.83 195.78,1940.75 192.95,1958.99 197.14,1981.98 207.32,2005.19 227.17,2021.10 245.56,2027.84 271.72,2026.97 301.02,2012.10 325.67,1987.27 373.19,1947.92 390.36,1939.35 418.50,1937.01 438.99,1937.84 463.93,1948.12 506.76,1974.00 544.91,2008.12 567.25,2031.05 582.22,2055.65 594.42,2085.29 604.93,2115.62 610.77,2151.27 613.07,2181.19 608.45,2212.56 593.26,2246.21 555.99,2318.59 513.65,2390.58 486.62,2418.18 465.35,2434.36 441.70,2443.10 412.77,2448.75 386.82,2449.70 354.26,2443.51 314.74,2432.79 268.43,2421.35 242.36,2420.83 216.63,2425.58 195.55,2433.43 182.48,2442.81"/>
        <lane id="1353388496_1" index="1" disallow="pedestrian bicycle tram rail_urban rail rail_electric rail_fast ship" speed="27.78" length="3954.11" shape="477.49,-1.06 437.86,43.72 355.82,131.62 329.90,160.04 323.02,182.08 322.96,228.99 329.07,307.11 327.86,355.93 315.29,398.15 294.72,425.39 257.36,457.02 169.42,518.58 129.16,553.28 114.24,568.79 107.89,586.66 107.46,610.08 123.16,689.67 129.80,715.96 140.06,740.31 170.57,772.05 217.25,821.27 236.75,849.46 242.37,878.44 238.00,903.01 222.31,930.66 181.77,962.76 84.94,1030.28 60.28,1054.95 49.23,1073.03 44.59,1090.15 46.28,1112.12 59.34,1133.24 76.84,1144.17 207.70,1181.73 230.84,1191.39 251.01,1208.71 262.30,1231.63 263.11,1252.31 258.98,1275.29 244.74,1300.41 218.25,1336.84 194.73,1362.13 154.22,1385.09 116.70,1409.68 80.11,1440.40 30.94,1497.11 8.17,1526.82 -1.65,1552.21 5.02,1592.38 11.84,1616.22 30.29,1653.28 48.22,1669.02 67.53,1679.75 99.23,1684.50 126.44,1679.07 161.28,1667.08 192.31,1659.64 217.72,1659.55 237.25,1669.42 252.76,1686.52 261.85,1714.05 261.46,1734.36 254.42,1763.14 240.15,1800.77 220.52,1843.31 212.21,1869.70 204.34,1904.97 192.66,1939.99 189.71,1959.03 194.06,1982.92 204.70,2007.19 225.58,2023.92 245.04,2031.06 272.54,2030.14 302.93,2014.72 327.84,1989.64 374.95,1950.62 391.24,1942.49 418.57,1940.21 438.30,1941.02 462.49,1950.98 504.85,1976.59 542.70,2010.43 564.70,2033.02 579.35,2057.10 591.43,2086.43 601.81,2116.41 607.59,2151.65 609.86,2181.07 605.35,2211.65 590.38,2244.82 553.19,2317.04 511.09,2388.62 484.50,2415.78 463.79,2431.53 440.83,2440.01 412.40,2445.56 387.07,2446.49 354.98,2440.39 315.54,2429.70 268.85,2418.16 242.10,2417.62 215.77,2422.48 194.04,2430.58 180.61,2440.21"/>
        <param key="ref" value="NH29"/>
    </edge>

    <junction id="12522923406" type="dead_end" x="188.83" y="974.31" incLanes="1353388495_0 1353388495_1" intLanes="" shape="187.05,971.64 190.61,976.97"/>
    <junction id="4514882662" type="dead_end" x="478.68" y="0.00" incLanes="" intLanes="" shape="476.29,-2.12 481.08,2.12"/>
    <junction id="6263815666" type="dead_end" x="181.54" y="2441.51" incLanes="1353388496_0 1353388496_1" intLanes="" shape="183.41,2444.11 179.68,2438.91"/>
    <junction id="9561831826" type="dead_end" x="192.40" y="2448.34" incLanes="" intLanes="" shape="193.76,2451.24 191.04,2445.44"/>

</net>
